Version 4
SHEET 1 880 680
WIRE -240 -608 -352 -608
WIRE 80 -608 -240 -608
WIRE -160 -576 -352 -576
WIRE 448 -528 0 -528
WIRE -160 -464 -160 -576
WIRE 0 -448 0 -528
WIRE 0 -448 -64 -448
WIRE 128 -448 0 -448
WIRE 256 -448 208 -448
WIRE 352 -448 256 -448
WIRE 368 -448 352 -448
WIRE 0 -432 0 -448
WIRE -336 -384 -352 -384
WIRE -208 -384 -336 -384
WIRE 0 -352 -64 -352
WIRE -32 -288 -64 -288
WIRE 256 -288 256 -448
WIRE 368 -288 368 -448
WIRE 80 -256 80 -608
WIRE -240 -144 -240 -608
WIRE -336 -128 -336 -384
WIRE -288 -128 -336 -128
WIRE -32 -112 -32 -288
WIRE 80 -112 80 -176
WIRE 80 -112 -32 -112
WIRE 416 -112 80 -112
WIRE -32 -96 -32 -112
WIRE 80 -48 80 -112
WIRE -240 -16 -240 -48
WIRE -112 -16 -240 -16
WIRE -80 -16 -112 -16
WIRE -112 16 -112 -16
WIRE -160 144 -160 -240
WIRE -112 144 -112 96
WIRE -112 144 -160 144
WIRE -80 144 -112 144
WIRE -32 144 -32 0
WIRE -32 144 -80 144
WIRE 0 144 0 -272
WIRE 0 144 -32 144
WIRE 80 144 80 16
WIRE 80 144 0 144
WIRE 256 144 256 -224
WIRE 256 144 80 144
WIRE 368 144 368 -208
WIRE 368 144 256 144
WIRE -80 176 -80 144
WIRE -80 176 -352 176
FLAG 448 -528 Vout
IOPIN 448 -528 Out
FLAG 352 -448 vload0
FLAG 416 -112 powerbad_
IOPIN 416 -112 Out
FLAG -352 -384 shutdown_
IOPIN -352 -384 In
FLAG -352 -576 Vdd
IOPIN -352 -576 In
FLAG -352 -608 section_enabled
IOPIN -352 -608 In
FLAG -352 176 Vss
IOPIN -352 176 In
SYMBOL res -16 -448 R0
SYMATTR InstName R1
SYMATTR Value 191k
SYMBOL res 112 -432 R270
WINDOW 0 32 56 VTop 2
WINDOW 3 0 56 VBottom 2
SYMATTR InstName R2
SYMATTR Value .01
SYMBOL cap 240 -288 R0
SYMATTR InstName C1
SYMATTR Value 10µ
SYMBOL res 352 -304 R0
SYMATTR InstName R3
SYMATTR Value 250
SYMBOL res -16 -368 R0
SYMATTR InstName R4
SYMATTR Value 60.4k
SYMBOL res 64 -272 R0
SYMATTR InstName R5
SYMATTR Value 200k
SYMBOL cap 64 -48 R0
SYMATTR InstName C2
SYMATTR Value .1µ
SYMBOL myLT3055 -160 -384 R0
SYMATTR InstName X1
SYMBOL nmos -80 -96 R0
SYMATTR InstName M1
SYMATTR Value AO6408
SYMBOL pmos -288 -48 M180
SYMATTR InstName M2
SYMATTR Value AO6407
SYMBOL res -128 0 R0
SYMATTR InstName R6
SYMATTR Value 10k
