Version 4
SHEET 1 1020 680
WIRE -240 -608 -352 -608
WIRE 128 -608 -240 -608
WIRE -160 -576 -352 -576
WIRE 496 -528 0 -528
WIRE -160 -464 -160 -576
WIRE 0 -448 0 -528
WIRE 0 -448 -64 -448
WIRE 80 -448 0 -448
WIRE 176 -448 80 -448
WIRE 304 -448 256 -448
WIRE 400 -448 304 -448
WIRE 416 -448 400 -448
WIRE 0 -432 0 -448
WIRE 80 -432 80 -448
WIRE -336 -384 -352 -384
WIRE -208 -384 -336 -384
WIRE 0 -352 -64 -352
WIRE 80 -320 80 -352
WIRE 80 -320 -64 -320
WIRE 304 -288 304 -448
WIRE 416 -288 416 -448
WIRE -32 -256 -64 -256
WIRE 128 -256 128 -608
WIRE -240 -144 -240 -608
WIRE -336 -128 -336 -384
WIRE -288 -128 -336 -128
WIRE -32 -112 -32 -256
WIRE 128 -112 128 -176
WIRE 128 -112 -32 -112
WIRE 464 -112 128 -112
WIRE -32 -96 -32 -112
WIRE 128 -48 128 -112
WIRE -240 -16 -240 -48
WIRE -112 -16 -240 -16
WIRE -80 -16 -112 -16
WIRE -112 16 -112 -16
WIRE -160 144 -160 -208
WIRE -112 144 -112 96
WIRE -112 144 -160 144
WIRE -80 144 -112 144
WIRE -32 144 -32 0
WIRE -32 144 -80 144
WIRE 128 144 128 16
WIRE 128 144 -32 144
WIRE 304 144 304 -224
WIRE 304 144 128 144
WIRE 416 144 416 -208
WIRE 416 144 304 144
WIRE -80 176 -80 144
WIRE -80 176 -352 176
FLAG 496 -528 Vout
IOPIN 496 -528 Out
FLAG 400 -448 vload0
FLAG 464 -112 powerbad_
IOPIN 464 -112 Out
FLAG -352 -384 shutdown_
IOPIN -352 -384 In
FLAG -352 -576 Vdd
IOPIN -352 -576 In
FLAG -352 -608 section_enabled
IOPIN -352 -608 In
FLAG -352 176 Vss
IOPIN -352 176 In
SYMBOL res -16 -448 R0
SYMATTR InstName R1
SYMATTR Value 16k
SYMBOL res 160 -432 R270
WINDOW 0 32 56 VTop 2
WINDOW 3 0 56 VBottom 2
SYMATTR InstName R2
SYMATTR Value .01
SYMBOL cap 288 -288 R0
SYMATTR InstName C1
SYMATTR Value 217µ
SYMBOL res 400 -304 R0
SYMATTR InstName R3
SYMATTR Value 1.6
SYMBOL res 112 -272 R0
SYMATTR InstName R5
SYMATTR Value 200k
SYMBOL cap 112 -48 R0
SYMATTR InstName C2
SYMATTR Value .1µ
SYMBOL nmos -80 -96 R0
SYMATTR InstName M1
SYMATTR Value AO6408
SYMBOL pmos -288 -48 M180
SYMATTR InstName M2
SYMATTR Value AO6407
SYMBOL res -128 0 R0
SYMATTR InstName R6
SYMATTR Value 10k
SYMBOL myLT3086 -160 -384 R0
SYMATTR InstName X1
SYMBOL res 64 -448 R0
SYMATTR InstName R4
SYMATTR Value 13.5k
