Version 4
SHEET 1 2024 680
WIRE 1040 -176 1008 -176
WIRE 352 -112 336 -112
WIRE 624 -112 352 -112
WIRE 672 -112 624 -112
WIRE 1008 -112 1008 -176
WIRE 1008 -112 928 -112
WIRE 1104 -112 1008 -112
WIRE 1264 -112 1104 -112
WIRE 1104 -96 1104 -112
WIRE 1264 -80 1264 -112
WIRE 352 -64 352 -112
WIRE 672 -16 592 -16
WIRE 1008 -16 928 -16
WIRE 1104 -16 1104 -32
WIRE 1104 -16 1008 -16
WIRE 1008 32 1008 -16
WIRE 1040 32 1008 32
WIRE 1168 80 928 80
WIRE 1056 176 928 176
WIRE 1088 176 1056 176
WIRE 1056 240 1056 176
WIRE 672 272 640 272
WIRE 1008 272 928 272
WIRE 1168 272 1168 80
WIRE 960 368 928 368
WIRE 960 400 960 368
WIRE 352 528 352 0
WIRE 352 528 336 528
WIRE 800 528 800 432
WIRE 800 528 352 528
WIRE 960 528 960 464
WIRE 960 528 800 528
WIRE 1008 528 1008 272
WIRE 1008 528 960 528
WIRE 1056 528 1056 320
WIRE 1056 528 1008 528
WIRE 1168 528 1168 336
WIRE 1168 528 1056 528
WIRE 1264 528 1264 -16
WIRE 1264 528 1168 528
FLAG 1040 -176 vout
IOPIN 1040 -176 Out
FLAG 1088 176 Vimon
IOPIN 1088 176 Out
FLAG 624 -112 vin
FLAG 640 272 PWRBAD_
IOPIN 640 272 BiDir
FLAG 336 528 Vss
IOPIN 336 528 In
FLAG 336 -112 Vdd
IOPIN 336 -112 In
FLAG 1040 32 adj
IOPIN 1040 32 BiDir
FLAG 592 -16 shutdown_
IOPIN 592 -16 In
SYMBOL res 1040 224 R0
SYMATTR InstName R2
SYMATTR Value 240
SYMBOL cap 1088 -96 R0
SYMATTR InstName C1
SYMATTR Value 10n
SYMBOL cap 336 -64 R0
SYMATTR InstName C3
SYMATTR Value 10µ
SYMBOL cap 1248 -80 R0
SYMATTR InstName C4
SYMATTR Value 10µ
SYMBOL PowerProducts\\LT3055 800 128 R0
SYMATTR InstName U1
SYMBOL cap 1152 272 R0
SYMATTR InstName C5
SYMATTR Value 10n
SYMBOL cap 944 400 R0
SYMATTR InstName C6
SYMATTR Value .1µ
