Version 4
SHEET 1 2284 680
WIRE 656 -176 608 -176
WIRE -48 -112 -64 -112
WIRE 224 -112 -48 -112
WIRE 272 -112 224 -112
WIRE 608 -112 608 -176
WIRE 608 -112 528 -112
WIRE 720 -112 608 -112
WIRE 848 -112 720 -112
WIRE 720 -96 720 -112
WIRE 848 -80 848 -112
WIRE -48 -64 -48 -112
WIRE 272 -16 192 -16
WIRE 608 -16 528 -16
WIRE 720 -16 720 -32
WIRE 720 -16 608 -16
WIRE 608 32 608 -16
WIRE 656 32 608 32
WIRE 144 176 -96 176
WIRE 272 176 144 176
WIRE 592 176 528 176
WIRE 624 176 592 176
WIRE 144 240 144 176
WIRE 272 272 240 272
WIRE 672 272 528 272
WIRE 592 320 592 176
WIRE -48 528 -48 0
WIRE -48 528 -64 528
WIRE 144 528 144 320
WIRE 144 528 -48 528
WIRE 240 528 240 272
WIRE 240 528 144 528
WIRE 400 528 400 336
WIRE 400 528 240 528
WIRE 592 528 592 384
WIRE 592 528 400 528
WIRE 848 528 848 -16
WIRE 848 528 592 528
FLAG 656 -176 vout
IOPIN 656 -176 Out
FLAG -96 176 Vimon
IOPIN -96 176 Out
FLAG 224 -112 vin
FLAG 672 272 PWRBAD_
IOPIN 672 272 BiDir
FLAG -64 528 Vss
IOPIN -64 528 In
FLAG -64 -112 Vdd
IOPIN -64 -112 In
FLAG 656 32 set
IOPIN 656 32 BiDir
FLAG 192 -16 shutdown_
IOPIN 192 -16 In
FLAG 624 176 RPWRBAD_
IOPIN 624 176 BiDir
SYMBOL cap 704 -96 R0
SYMATTR InstName C1
SYMATTR Value 10n
SYMBOL cap -64 -64 R0
SYMATTR InstName C3
SYMATTR Value 10µ
SYMBOL cap 832 -80 R0
SYMATTR InstName C4
SYMATTR Value 10µ
SYMBOL PowerProducts\\LT3086 400 80 R0
SYMATTR InstName U1
SYMBOL res 128 224 R0
SYMATTR InstName R1
SYMATTR Value 240
SYMBOL cap 576 320 R0
SYMATTR InstName C2
SYMATTR Value 270p
