Version 4
SHEET 1 920 680
WIRE -432 -560 -480 -560
WIRE -160 -560 -432 -560
WIRE -160 -448 -160 -560
WIRE -208 -432 -288 -432
WIRE -432 -368 -432 -560
WIRE -480 -352 -544 -352
WIRE -160 -336 -160 -352
WIRE 80 -336 -160 -336
WIRE 368 -336 80 -336
WIRE 512 -336 368 -336
WIRE 80 -304 80 -336
WIRE -432 -192 -432 -272
WIRE -288 -192 -288 -432
WIRE -288 -192 -432 -192
WIRE 512 -192 512 -336
WIRE 80 -176 80 -224
WIRE 464 -176 80 -176
WIRE -288 -96 -288 -192
WIRE -160 -96 -160 -336
WIRE 512 0 512 -96
WIRE 576 0 512 0
WIRE 80 16 80 -176
WIRE 32 96 -320 96
WIRE 512 96 512 0
WIRE -288 224 -288 -16
WIRE -288 224 -320 224
WIRE -160 224 -160 -16
WIRE -160 224 -288 224
WIRE 80 224 80 112
WIRE 80 224 -160 224
WIRE 512 224 512 176
WIRE 512 224 80 224
FLAG 576 0 PL_SHOULD_PWRUP
IOPIN 576 0 Out
FLAG 368 -336 PL_ENABLE
FLAG -288 -432 PL_DISABLE
FLAG -320 224 Vss
IOPIN -320 224 In
FLAG -480 -560 Vdd
IOPIN -480 -560 In
FLAG -320 96 PS_IS_POWERED
IOPIN -320 96 In
FLAG -544 -352 shutdown_
IOPIN -544 -352 In
SYMBOL pmos -208 -352 M180
SYMATTR InstName M1
SYMATTR Value AO6407
SYMBOL nmos 32 16 R0
SYMATTR InstName M2
SYMATTR Value AO6408
SYMBOL res -304 -112 R0
SYMATTR InstName R1
SYMATTR Value 10k
SYMBOL res -176 -112 R0
SYMATTR InstName R2
SYMATTR Value 10k
SYMBOL res 64 -320 R0
SYMATTR InstName R3
SYMATTR Value 10k
SYMBOL res 496 80 R0
SYMATTR InstName R5
SYMATTR Value 10k
SYMBOL pmos 464 -96 M180
SYMATTR InstName M4
SYMATTR Value AO6407
SYMBOL pmos -480 -272 M180
SYMATTR InstName M3
SYMATTR Value AO6407
