Version 4
SHEET 1 2464 1716
WIRE 16 -128 -64 -128
WIRE 528 -128 16 -128
WIRE 1328 -128 528 -128
WIRE 1712 192 1152 192
WIRE 1824 192 1712 192
WIRE 1712 256 1712 192
WIRE 528 288 528 -128
WIRE 304 352 144 352
WIRE 1152 352 1152 192
WIRE 1152 352 784 352
WIRE 1712 400 1712 336
WIRE 1712 400 1584 400
WIRE 1888 400 1712 400
WIRE 1584 448 1584 400
WIRE 1712 448 1712 400
WIRE 1328 480 1328 -128
WIRE 1152 528 1152 352
WIRE 1264 528 1152 528
WIRE 1536 528 1408 528
WIRE 528 704 528 400
WIRE 528 704 -16 704
WIRE 1328 704 1328 576
WIRE 1328 704 528 704
WIRE 1584 704 1584 544
WIRE 1584 704 1328 704
WIRE 1712 704 1712 512
WIRE 1712 704 1584 704
WIRE -16 736 -16 704
WIRE 144 768 144 352
WIRE 1616 768 144 768
WIRE -64 832 -64 -128
WIRE 0 832 -64 832
WIRE 672 832 0 832
WIRE 1360 832 672 832
WIRE 2080 832 1360 832
WIRE 1200 928 400 928
WIRE 1888 928 1888 400
WIRE 1888 928 1200 928
WIRE 1744 1168 1248 1168
WIRE 1808 1168 1744 1168
WIRE 2080 1168 2080 832
WIRE -64 1184 -64 832
WIRE 1744 1200 1744 1168
WIRE 1888 1296 1888 928
WIRE 1936 1296 1888 1296
WIRE 2080 1312 2080 1248
WIRE 2080 1312 2048 1312
WIRE 2128 1312 2080 1312
WIRE 1616 1328 1616 768
WIRE 1744 1328 1744 1280
WIRE 1744 1328 1616 1328
WIRE 1824 1328 1744 1328
WIRE 1936 1328 1824 1328
WIRE 1616 1376 1616 1328
WIRE 1744 1376 1744 1328
WIRE 672 1392 672 832
WIRE 1360 1408 1360 832
WIRE 400 1456 400 928
WIRE 448 1456 400 1456
WIRE 1248 1456 1248 1168
WIRE 1248 1456 928 1456
WIRE 1296 1456 1248 1456
WIRE 1568 1456 1440 1456
WIRE -64 1664 -64 1264
WIRE 672 1664 672 1504
WIRE 672 1664 -64 1664
WIRE 1360 1664 1360 1504
WIRE 1360 1664 672 1664
WIRE 1616 1664 1616 1472
WIRE 1616 1664 1360 1664
WIRE 1744 1664 1744 1440
WIRE 1744 1664 1616 1664
WIRE 1984 1664 1984 1360
WIRE 1984 1664 1744 1664
WIRE -64 1696 -64 1664
FLAG 16 -128 raw2
FLAG -16 736 0
FLAG 1824 192 PS_should_power_up
IOPIN 1824 192 Out
FLAG 0 832 raw2
FLAG -64 1696 0
FLAG 1808 1168 PL_should_power_up
IOPIN 1808 1168 Out
FLAG 1200 928 ps_is_powered
FLAG 1824 1328 pl_is_powered
FLAG 2128 1312 \PS_AND_PL_POWERED
SYMBOL voltage -64 1168 R0
WINDOW 123 0 0 Left 2
WINDOW 39 0 0 Left 2
SYMATTR InstName V2
SYMATTR Value 3.2
SYMBOL res 1696 240 R0
SYMATTR InstName R6
SYMATTR Value 200000
SYMBOL cap 1696 448 R0
SYMATTR InstName C1
SYMATTR Value .1µ
SYMBOL nmos 1536 448 R0
SYMATTR InstName M7
SYMATTR Value AO6408
SYMBOL inverter 1328 528 R0
SYMATTR InstName X1
SYMBOL cap 1728 1376 R0
SYMATTR InstName C2
SYMATTR Value .1µ
SYMBOL nmos 1568 1376 R0
SYMATTR InstName M9
SYMATTR Value AO6408
SYMBOL inverter 1360 1456 R0
SYMATTR InstName X2
SYMBOL res 1728 1184 R0
SYMATTR InstName R10
SYMATTR Value 200000
SYMBOL nand.open-drain 1984 1312 R0
SYMATTR InstName X3
SYMBOL res 2064 1152 R0
SYMATTR InstName R13
SYMATTR Value 10000
SYMBOL PS.power-up-logic 368 384 R0
SYMATTR InstName X4
SYMBOL PL.power-up-logic 512 1488 R0
SYMATTR InstName X5
TEXT -48 760 Left 2 !.tran 30m startup
